[General]
network = RoutingScenario
sim-time-limit = 600s # Set duration of simulation to 600s
debug-on-errors = true
cmdenv-express-mode = true
image-path = ../../../../images

#UDPBasicApp
*.node[*].numApps = 1
*.node[*].app[0].typename = "UdpBasicApp"
*.node[*].app[0].destAddresses = "node[*]"
*.node[*].app[0].destPort = 5000
*.node[*].app[0].messageLength = 1000B
*.node[*].app[0].sendInterval = exponential(12ms)
*.node[*].app[0].packetName = "UDPData"

#Ieee80211Interface
*.node[*].wlan[0].opMode = "p" # Thiet lap che do hoat dong cho wireless interface
*.node[*].wlan[0].radio.bandName = "5.9 GHz"
*.node[*].wlan[0].radio.channelNumber = 3
*.node[*].wlan[0].radio.transmitter.power = 20mW
*.node[*].wlan[0].radio.bandwidth = 10 MHz

# HostAutoConfigurator
*.node[*].ipv4.configurator.typename = "HostAutoConfigurator"
*.node[*].ipv4.configurator.interfaces = "wlan0"
*.node[*].ipv4.configurator.mcastGroups = "224.0.0.1"

#VeinsInetMobility
*.node[*].mobility.typename = "VeinsInetMobility"

#VeinsInetManager
*.manager.updateInterval = 0.1s
*.manager.host = "localhost"
*.manager.port = 9999
*.manager.autoShutdown = true
*.manager.launchConfig = xmldoc("thuyloi_aodv.launchd.xml")
*.manager.moduleType = "thuyloi_aodv.veins_inet.VeinsInetRoutingCar"

# PhysicalEnvironment
*.physicalEnvironment.config = xmldoc("obstacles.xml")
*.radioMedium.obstacleLoss.typename = "IdealObstacleLoss"

**.vector-recording = true

#Routing
**.router = "Aodv"

# Misc

[Config plain]

[Config canvas]
extends = plain
description = "Enable enhanced 2D visualization"

# IntegratedCanvasVisualizer (2D)

*.visualizer.osgVisualizer.typename = ""

[Config osg]
extends = canvas
description = "Enable enhanced 2D and 3D visualization using OSG"

*.useOsg = true

# IntegratedOsgVisualizer (3D)
*.visualizer.osgVisualizer.typename = IntegratedOsgVisualizer
*.node[*].osgModel = "veins_inet/node/car.obj.-5e-1,0e-1,5e-1.trans.450e-2,180e-2,150e-2.scale" # offset .5 back and .5 up (position is front bumper at road level), make 450cm long, 180m wide, 150m high

