<?xml version="1.0" encoding="UTF-8"?>

<!-- generated on 2024-01-01 16:30:28 by Eclipse SUMO netconvert Version 1.11.0
<configuration xmlns:xsi="http://www.w3.org/2001/XMLSchema-instance" xsi:noNamespaceSchemaLocation="http://sumo.dlr.de/xsd/netconvertConfiguration.xsd">

    <input>
        <osm-files value="thuyloi_aodv.osm"/>
    </input>

    <output>
        <output-file value="thuyloi_aodv.net.xml"/>
    </output>

    <projection>
        <proj.utm value="true"/>
    </projection>

    <processing>
        <geometry.remove value="true"/>
        <roundabouts.guess value="true"/>
    </processing>

    <tls_building>
        <tls.discard-simple value="true"/>
        <tls.join value="true"/>
        <tls.guess-signals value="true"/>
    </tls_building>

    <ramp_guessing>
        <ramps.guess value="true"/>
    </ramp_guessing>

    <junctions>
        <junctions.join value="true"/>
    </junctions>

    <report>
        <aggregate-warnings value="5"/>
    </report>

</configuration>
-->

<net version="1.9" junctionCornerDetail="5" limitTurnSpeed="5.50" xmlns:xsi="http://www.w3.org/2001/XMLSchema-instance" xsi:noNamespaceSchemaLocation="http://sumo.dlr.de/xsd/net_file.xsd">

    <location netOffset="-581751.53,-2327494.74" convBoundary="0.00,0.00,1610.63,1762.12" origBoundary="105.786897,21.046443,105.804278,21.062386" projParameter="+proj=utm +zone=48 +ellps=WGS84 +datum=WGS84 +units=m +no_defs"/>

    <type id="highway.bridleway" priority="1" numLanes="1" speed="2.78" allow="pedestrian" oneway="1" width="2.00"/>
    <type id="highway.bus_guideway" priority="1" numLanes="1" speed="27.78" allow="bus" oneway="1"/>
    <type id="highway.cycleway" priority="1" numLanes="1" speed="8.33" allow="bicycle" oneway="0" width="1.00"/>
    <type id="highway.footway" priority="1" numLanes="1" speed="2.78" allow="pedestrian" oneway="1" width="2.00"/>
    <type id="highway.ford" priority="1" numLanes="1" speed="2.78" allow="army" oneway="0"/>
    <type id="highway.living_street" priority="2" numLanes="1" speed="2.78" disallow="tram rail_urban rail rail_electric rail_fast ship" oneway="0"/>
    <type id="highway.motorway" priority="14" numLanes="2" speed="39.44" allow="private emergency authority army vip passenger hov taxi bus coach delivery truck trailer motorcycle evehicle custom1 custom2" oneway="1"/>
    <type id="highway.motorway_link" priority="9" numLanes="1" speed="22.22" allow="private emergency authority army vip passenger hov taxi bus coach delivery truck trailer motorcycle evehicle custom1 custom2" oneway="1"/>
    <type id="highway.path" priority="1" numLanes="1" speed="2.78" allow="pedestrian bicycle" oneway="0" width="2.00"/>
    <type id="highway.pedestrian" priority="1" numLanes="1" speed="2.78" allow="pedestrian" oneway="1" width="2.00"/>
    <type id="highway.primary" priority="12" numLanes="2" speed="27.78" disallow="tram rail_urban rail rail_electric rail_fast ship" oneway="0"/>
    <type id="highway.primary_link" priority="7" numLanes="1" speed="22.22" disallow="tram rail_urban rail rail_electric rail_fast ship" oneway="0"/>
    <type id="highway.raceway" priority="15" numLanes="2" speed="83.33" allow="vip" oneway="0"/>
    <type id="highway.residential" priority="3" numLanes="1" speed="13.89" disallow="tram rail_urban rail rail_electric rail_fast ship" oneway="0"/>
    <type id="highway.secondary" priority="11" numLanes="1" speed="27.78" disallow="tram rail_urban rail rail_electric rail_fast ship" oneway="0"/>
    <type id="highway.secondary_link" priority="6" numLanes="1" speed="22.22" disallow="tram rail_urban rail rail_electric rail_fast ship" oneway="0"/>
    <type id="highway.service" priority="1" numLanes="1" speed="5.56" allow="pedestrian delivery bicycle" oneway="0"/>
    <type id="highway.stairs" priority="1" numLanes="1" speed="1.39" allow="pedestrian" oneway="1" width="2.00"/>
    <type id="highway.step" priority="1" numLanes="1" speed="1.39" allow="pedestrian" oneway="1" width="2.00"/>
    <type id="highway.steps" priority="1" numLanes="1" speed="1.39" allow="pedestrian" oneway="1" width="2.00"/>
    <type id="highway.tertiary" priority="10" numLanes="1" speed="22.22" disallow="tram rail_urban rail rail_electric rail_fast ship" oneway="0"/>
    <type id="highway.tertiary_link" priority="5" numLanes="1" speed="22.22" disallow="tram rail_urban rail rail_electric rail_fast ship" oneway="0"/>
    <type id="highway.track" priority="1" numLanes="1" speed="5.56" allow="pedestrian motorcycle moped bicycle" oneway="0"/>
    <type id="highway.trunk" priority="13" numLanes="2" speed="27.78" disallow="pedestrian bicycle tram rail_urban rail rail_electric rail_fast ship" oneway="0"/>
    <type id="highway.trunk_link" priority="8" numLanes="1" speed="22.22" disallow="pedestrian bicycle tram rail_urban rail rail_electric rail_fast ship" oneway="0"/>
    <type id="highway.unclassified" priority="4" numLanes="1" speed="13.89" disallow="tram rail_urban rail rail_electric rail_fast ship" oneway="0"/>
    <type id="highway.unsurfaced" priority="1" numLanes="1" speed="8.33" disallow="tram rail_urban rail rail_electric rail_fast ship" oneway="0"/>
    <type id="railway.highspeed" priority="21" numLanes="1" speed="69.44" allow="rail_fast" oneway="1"/>
    <type id="railway.light_rail" priority="19" numLanes="1" speed="27.78" allow="rail_urban" oneway="1"/>
    <type id="railway.preserved" priority="16" numLanes="1" speed="27.78" allow="rail" oneway="1"/>
    <type id="railway.rail" priority="20" numLanes="1" speed="44.44" allow="rail" oneway="1"/>
    <type id="railway.subway" priority="18" numLanes="1" speed="27.78" allow="rail_urban" oneway="1"/>
    <type id="railway.tram" priority="17" numLanes="1" speed="13.89" allow="tram" oneway="1"/>

    <edge id=":10040072215_0" function="internal">
        <lane id=":10040072215_0_0" index="0" allow="pedestrian delivery bicycle" speed="4.86" length="4.50" shape="400.74,578.72 399.34,578.85 398.33,579.28 397.71,580.01 397.49,581.03"/>
    </edge>
    <edge id=":10040072215_1" function="internal">
        <lane id=":10040072215_1_0" index="0" allow="pedestrian delivery bicycle" speed="5.56" length="10.25" shape="400.74,578.72 397.95,578.30 395.99,577.08 394.85,575.07 394.52,572.28"/>
    </edge>
    <edge id=":10040072215_2" function="internal">
        <lane id=":10040072215_2_0" index="0" allow="pedestrian delivery bicycle" speed="3.65" length="4.67" shape="400.74,578.72 399.55,577.91 399.15,577.11 399.56,576.31 400.77,575.52"/>
    </edge>
    <edge id=":10040072215_3" function="internal">
        <lane id=":10040072215_3_0" index="0" allow="pedestrian delivery bicycle" speed="5.02" length="5.02" shape="397.72,572.36 397.88,573.73 398.44,574.72 399.40,575.31 400.77,575.52"/>
    </edge>
    <edge id=":10040072215_4" function="internal">
        <lane id=":10040072215_4_0" index="0" allow="pedestrian delivery bicycle" speed="5.56" length="8.67" shape="397.72,572.36 397.49,581.03"/>
    </edge>
    <edge id=":10040072215_5" function="internal">
        <lane id=":10040072215_5_0" index="0" allow="pedestrian delivery bicycle" speed="3.65" length="4.67" shape="397.72,572.36 396.89,573.54 396.08,573.92 395.29,573.50 394.52,572.28"/>
    </edge>
    <edge id=":10040072215_6" function="internal">
        <lane id=":10040072215_6_0" index="0" allow="pedestrian delivery bicycle" speed="5.56" length="8.67" shape="394.29,580.94 394.52,572.28"/>
    </edge>
    <edge id=":10040072215_7" function="internal">
        <lane id=":10040072215_7_0" index="0" allow="pedestrian delivery bicycle" speed="5.56" length="9.58" shape="394.29,580.94 394.75,578.55 395.98,576.85 397.99,575.84 400.77,575.52"/>
    </edge>
    <edge id=":10040072215_8" function="internal">
        <lane id=":10040072215_8_0" index="0" allow="pedestrian delivery bicycle" speed="3.65" length="4.67" shape="394.29,580.94 395.12,579.77 395.93,579.39 396.72,579.81 397.49,581.03"/>
    </edge>
    <edge id=":10053920212_0" function="internal">
        <lane id=":10053920212_0_0" index="0" allow="pedestrian delivery bicycle" speed="3.65" length="4.67" shape="685.54,574.03 684.71,575.20 683.90,575.58 683.11,575.16 682.34,573.94"/>
    </edge>
    <edge id=":10218039950_0" function="internal">
        <lane id=":10218039950_0_0" index="0" allow="pedestrian delivery bicycle" speed="3.65" length="4.67" shape="1019.04,985.61 1017.67,986.06 1016.79,985.88 1016.41,985.07 1016.52,983.63"/>
    </edge>
    <edge id=":10218039952_0" function="internal">
        <lane id=":10218039952_0_0" index="0" allow="pedestrian delivery bicycle" speed="3.65" length="4.67" shape="1053.23,961.48 1054.61,961.92 1055.21,962.58 1055.05,963.46 1054.11,964.56"/>
    </edge>
    <edge id=":10218039956_0" function="internal">
        <lane id=":10218039956_0_0" index="0" disallow="tram rail_urban rail rail_electric rail_fast ship" speed="13.89" length="4.95" shape="978.11,1019.81 973.16,1019.78"/>
    </edge>
    <edge id=":10218039956_1" function="internal">
        <lane id=":10218039956_1_0" index="0" disallow="tram rail_urban rail rail_electric rail_fast ship" speed="13.89" length="4.98" shape="973.17,1016.58 978.15,1016.61"/>
    </edge>
    <edge id=":10218039957_0" function="internal">
        <lane id=":10218039957_0_0" index="0" disallow="tram rail_urban rail rail_electric rail_fast ship" speed="13.89" length="5.02" shape="955.16,718.17 950.14,718.15"/>
    </edge>
    <edge id=":10218039957_1" function="internal">
        <lane id=":10218039957_1_0" index="0" disallow="tram rail_urban rail rail_electric rail_fast ship" speed="13.89" length="5.06" shape="950.13,714.95 955.19,714.97"/>
    </edge>
    <edge id=":10254782831_0" function="internal">
        <lane id=":10254782831_0_0" index="0" allow="pedestrian delivery bicycle" speed="3.65" length="4.67" shape="560.27,984.55 559.04,983.79 558.61,983.01 558.98,982.20 560.15,981.35"/>
    </edge>
    <edge id=":10254782893_0" function="internal">
        <lane id=":10254782893_0_0" index="0" allow="pedestrian delivery bicycle" speed="3.65" length="4.67" shape="518.11,1051.72 516.91,1050.91 516.52,1050.11 516.92,1049.31 518.13,1048.52"/>
    </edge>
    <edge id=":10293406421_0" function="internal">
        <lane id=":10293406421_0_0" index="0" disallow="tram rail_urban rail rail_electric rail_fast ship" speed="7.29" length="6.39" shape="1127.77,1102.96 1127.91,1104.79 1128.36,1106.34 1129.13,1107.61 1130.21,1108.59"/>
    </edge>
    <edge id=":10293406421_1" function="internal">
        <lane id=":10293406421_1_0" index="0" disallow="tram rail_urban rail rail_electric rail_fast ship" speed="13.64" length="6.87" shape="1123.82,1106.40 1125.84,1106.66 1127.22,1106.94 1128.50,1107.51 1130.21,1108.59"/>
    </edge>
    <edge id=":10293406439_0" function="internal">
        <lane id=":10293406439_0_0" index="0" disallow="tram rail_urban rail rail_electric rail_fast ship" speed="27.78" length="7.81" shape="1115.11,1179.90 1112.82,1179.52 1111.27,1179.17 1109.78,1178.62 1107.70,1177.62"/>
    </edge>
    <edge id=":10293406439_1" function="internal">
        <lane id=":10293406439_1_0" index="0" disallow="tram rail_urban rail rail_electric rail_fast ship" speed="7.07" length="7.05" shape="1110.78,1183.54 1110.59,1181.54 1110.02,1179.88 1109.05,1178.58 1107.70,1177.62"/>
    </edge>
    <edge id=":10293406446_0" function="internal">
        <lane id=":10293406446_0_0" index="0" disallow="tram rail_urban rail rail_electric rail_fast ship" speed="8.90" length="7.25" shape="1135.04,1107.18 1135.18,1109.58 1135.53,1111.52 1136.07,1113.01 1136.82,1114.05"/>
    </edge>
    <edge id=":10293406446_1" function="internal">
        <lane id=":10293406446_1_0" index="0" disallow="tram rail_urban rail rail_electric rail_fast ship" speed="27.78" length="7.68" shape="1130.97,1109.11 1132.83,1110.42 1134.04,1111.40 1135.18,1112.47 1136.82,1114.05"/>
    </edge>
    <edge id=":10293406447_0" function="internal">
        <lane id=":10293406447_0_0" index="0" disallow="tram rail_urban rail rail_electric rail_fast ship" speed="7.73" length="8.32" shape="1104.74,1110.13 1106.36,1108.97 1107.51,1107.42 1108.21,1105.48 1108.43,1103.15"/>
    </edge>
    <edge id=":10293406447_1" function="internal">
        <lane id=":10293406447_1_0" index="0" disallow="tram rail_urban rail rail_electric rail_fast ship" speed="24.77" length="9.20" shape="1104.74,1110.13 1107.13,1108.80 1108.79,1107.88 1110.54,1107.24 1113.20,1106.75"/>
    </edge>
    <edge id=":10293406448_0" function="internal">
        <lane id=":10293406448_0_0" index="0" disallow="tram rail_urban rail rail_electric rail_fast ship" speed="5.94" length="7.47" shape="1108.36,1026.82 1108.13,1024.36 1107.46,1022.62 1106.33,1021.58 1104.76,1021.27"/>
    </edge>
    <edge id=":10293406448_1" function="internal">
        <lane id=":10293406448_1_0" index="0" disallow="tram rail_urban rail rail_electric rail_fast ship" speed="27.78" length="14.40" shape="1108.36,1026.82 1108.37,1012.43"/>
    </edge>
    <edge id=":10293406448_2" function="internal">
        <lane id=":10293406448_2_0" index="0" disallow="tram rail_urban rail rail_electric rail_fast ship" speed="6.06" length="7.55" shape="1104.69,1018.07 1106.29,1017.68 1107.44,1016.62 1108.13,1014.86 1108.37,1012.43"/>
    </edge>
    <edge id=":10293406448_3" function="internal">
        <lane id=":10293406448_3_0" index="0" disallow="tram rail_urban rail rail_electric rail_fast ship" speed="3.65" length="4.67" shape="1104.69,1018.07 1105.90,1018.84 1106.32,1019.63 1105.94,1020.44 1104.76,1021.27"/>
    </edge>
    <edge id=":10293406453_0" function="internal">
        <lane id=":10293406453_0_0" index="0" disallow="tram rail_urban rail rail_electric rail_fast ship" speed="6.01" length="7.49" shape="1131.90,868.84 1130.32,869.20 1129.20,870.26 1128.52,872.01 1128.30,874.46"/>
    </edge>
    <edge id=":10293406453_1" function="internal">
        <lane id=":10293406453_1_0" index="0" disallow="tram rail_urban rail rail_electric rail_fast ship" speed="3.65" length="4.67" shape="1131.90,868.84 1130.69,868.05 1130.28,867.26 1130.67,866.45 1131.87,865.64"/>
    </edge>
    <edge id=":10293406453_2" function="internal">
        <lane id=":10293406453_2_0" index="0" disallow="tram rail_urban rail rail_electric rail_fast ship" speed="5.95" length="7.45" shape="1128.34,860.05 1128.55,862.51 1129.21,864.26 1130.31,865.30 1131.87,865.64"/>
    </edge>
    <edge id=":10293406453_3" function="internal">
        <lane id=":10293406453_3_0" index="0" disallow="tram rail_urban rail rail_electric rail_fast ship" speed="27.78" length="14.41" shape="1128.34,860.05 1128.30,874.46"/>
    </edge>
    <edge id=":10293406456_0" function="internal">
        <lane id=":10293406456_0_0" index="0" disallow="tram rail_urban rail rail_electric rail_fast ship" speed="6.02" length="7.60" shape="1105.80,716.60 1107.44,716.26 1108.62,715.22 1109.33,713.47 1109.58,711.02"/>
    </edge>
    <edge id=":10293406456_1" function="internal">
        <lane id=":10293406456_1_0" index="0" disallow="tram rail_urban rail rail_electric rail_fast ship" speed="3.65" length="4.67" shape="1105.80,716.60 1106.99,717.41 1107.39,718.21 1106.98,719.01 1105.78,719.80"/>
    </edge>
    <edge id=":10293406456_2" function="internal">
        <lane id=":10293406456_2_0" index="0" disallow="tram rail_urban rail rail_electric rail_fast ship" speed="6.03" length="7.60" shape="1109.50,725.42 1109.28,722.97 1108.58,721.22 1107.42,720.16 1105.78,719.80"/>
    </edge>
    <edge id=":10293406456_3" function="internal">
        <lane id=":10293406456_3_0" index="0" disallow="tram rail_urban rail rail_electric rail_fast ship" speed="27.78" length="14.40" shape="1109.50,725.42 1109.58,711.02"/>
    </edge>
    <edge id=":10293406457_0" function="internal">
        <lane id=":10293406457_0_0" index="0" disallow="tram rail_urban rail rail_electric rail_fast ship" speed="5.99" length="7.45" shape="1132.50,721.57 1130.95,721.92 1129.84,722.97 1129.17,724.71 1128.94,727.16"/>
    </edge>
    <edge id=":10293406457_1" function="internal">
        <lane id=":10293406457_1_0" index="0" disallow="tram rail_urban rail rail_electric rail_fast ship" speed="3.65" length="4.67" shape="1132.50,721.57 1131.30,720.77 1130.90,719.97 1131.30,719.17 1132.50,718.37"/>
    </edge>
    <edge id=":10293406457_2" function="internal">
        <lane id=":10293406457_2_0" index="0" disallow="tram rail_urban rail rail_electric rail_fast ship" speed="5.96" length="7.43" shape="1128.99,712.76 1129.20,715.22 1129.86,716.97 1130.96,718.02 1132.50,718.37"/>
    </edge>
    <edge id=":10293406457_3" function="internal">
        <lane id=":10293406457_3_0" index="0" disallow="tram rail_urban rail rail_electric rail_fast ship" speed="27.78" length="14.40" shape="1128.99,712.76 1128.94,727.16"/>
    </edge>
    <edge id=":10293406464_0" function="internal">
        <lane id=":10293406464_0_0" index="0" disallow="tram rail_urban rail rail_electric rail_fast ship" speed="7.83" length="8.40" shape="1128.13,1177.74 1126.41,1178.96 1125.17,1180.52 1124.42,1182.41 1124.16,1184.65"/>
    </edge>
    <edge id=":10293406464_1" function="internal">
        <lane id=":10293406464_1_0" index="0" disallow="tram rail_urban rail rail_electric rail_fast ship" speed="27.78" length="9.56" shape="1128.13,1177.74 1125.60,1178.96 1123.75,1179.53 1121.80,1179.84 1118.99,1180.24"/>
    </edge>
    <edge id=":10293406475_0" function="internal">
        <lane id=":10293406475_0_0" index="0" disallow="tram rail_urban rail rail_electric rail_fast ship" speed="22.22" length="5.39" shape="343.80,610.41 342.39,611.16 341.44,611.72 340.57,612.38 339.36,613.43"/>
    </edge>
    <edge id=":10293406481_0" function="internal">
        <lane id=":10293406481_0_0" index="0" disallow="tram rail_urban rail rail_electric rail_fast ship" speed="27.78" length="5.03" shape="1101.18,1094.60 1101.16,1089.57"/>
    </edge>
    <edge id=":10293406482_0" function="internal">
        <lane id=":10293406482_0_0" index="0" disallow="tram rail_urban rail rail_electric rail_fast ship" speed="27.78" length="5.04" shape="1134.85,1089.14 1134.85,1094.19"/>
    </edge>
    <edge id=":10293406483_0" function="internal">
        <lane id=":10293406483_0_0" index="0" disallow="tram rail_urban rail rail_electric rail_fast ship" speed="27.78" length="5.04" shape="1108.43,1094.52 1108.42,1089.48"/>
    </edge>
    <edge id=":10293406484_0" function="internal">
        <lane id=":10293406484_0_0" index="0" disallow="tram rail_urban rail rail_electric rail_fast ship" speed="27.78" length="5.07" shape="1127.93,1089.23 1127.87,1094.30"/>
    </edge>
    <edge id=":10312584333_0" function="internal">
        <lane id=":10312584333_0_0" index="0" disallow="tram rail_urban rail rail_electric rail_fast ship" speed="13.89" length="5.07" shape="1141.88,593.91 1146.95,593.82"/>
    </edge>
    <edge id=":10312584334_0" function="internal">
        <lane id=":10312584334_0_0" index="0" disallow="tram rail_urban rail rail_electric rail_fast ship" speed="13.89" length="5.07" shape="1146.86,607.32 1141.78,607.38"/>
    </edge>
    <edge id=":10312584336_0" function="internal">
        <lane id=":10312584336_0_0" index="0" disallow="tram rail_urban rail rail_electric rail_fast ship" speed="27.78" length="5.01" shape="1106.48,586.26 1106.52,581.25"/>
    </edge>
    <edge id=":10312584337_0" function="internal">
        <lane id=":10312584337_0_0" index="0" disallow="tram rail_urban rail rail_electric rail_fast ship" speed="27.78" length="5.02" shape="1133.20,581.53 1133.18,586.55"/>
    </edge>
    <edge id=":10312584339_0" function="internal">
        <lane id=":10312584339_0_0" index="0" disallow="tram rail_urban rail rail_electric rail_fast ship" speed="13.89" length="5.03" shape="1092.54,593.76 1097.56,593.79"/>
    </edge>
    <edge id=":10312584340_0" function="internal">
        <lane id=":10312584340_0_0" index="0" disallow="tram rail_urban rail rail_electric rail_fast ship" speed="13.89" length="5.03" shape="1097.60,607.99 1092.57,607.96"/>
    </edge>
    <edge id=":10312584341_0" function="internal">
        <lane id=":10312584341_0_0" index="0" disallow="tram rail_urban rail rail_electric rail_fast ship" speed="27.78" length="5.01" shape="1106.41,620.58 1106.35,615.56"/>
    </edge>
    <edge id=":10312584342_0" function="internal">
        <lane id=":10312584342_0_0" index="0" disallow="tram rail_urban rail rail_electric rail_fast ship" speed="27.78" length="5.01" shape="1133.01,615.34 1133.03,620.36"/>
    </edge>
    <edge id=":10312584347_0" function="internal">
        <lane id=":10312584347_0_0" index="0" disallow="tram rail_urban rail rail_electric rail_fast ship" speed="22.22" length="5.39" shape="1147.23,571.30 1148.17,572.60 1148.86,573.45 1149.62,574.24 1150.79,575.34"/>
    </edge>
    <edge id=":10312584355_0" function="internal">
        <lane id=":10312584355_0_0" index="0" disallow="tram rail_urban rail rail_electric rail_fast ship" speed="22.22" length="5.17" shape="1091.16,627.48 1090.11,626.36 1089.37,625.61 1088.60,624.89 1087.45,623.87"/>
    </edge>
    <edge id=":10312584357_0" function="internal">
        <lane id=":10312584357_0_0" index="0" disallow="tram rail_urban rail rail_electric rail_fast ship" speed="22.22" length="5.52" shape="1155.89,621.74 1154.67,622.84 1153.86,623.61 1153.09,624.43 1152.02,625.67"/>
    </edge>
    <edge id=":10312584366_0" function="internal">
        <lane id=":10312584366_0_0" index="0" disallow="tram rail_urban rail rail_electric rail_fast ship" speed="13.89" length="11.19" shape="1437.23,1023.17 1426.03,1023.09"/>
    </edge>
    <edge id=":10312584366_1" function="internal">
        <lane id=":10312584366_1_0" index="0" disallow="tram rail_urban rail rail_electric rail_fast ship" speed="7.28" length="4.12" shape="1437.23,1023.17 1434.81,1022.68 1433.61,1021.54"/>
    </edge>
    <edge id=":10312584366_2" function="internal">
        <lane id=":10312584366_2_0" index="0" disallow="tram rail_urban rail rail_electric rail_fast ship" speed="3.65" length="2.34" shape="1437.23,1023.17 1436.04,1022.36 1435.64,1021.55"/>
    </edge>
    <edge id=":10312584366_6" function="internal">
        <lane id=":10312584366_6_0" index="0" disallow="tram rail_urban rail rail_electric rail_fast ship" speed="7.28" length="7.66" shape="1433.61,1021.54 1433.07,1021.04 1432.02,1018.25 1431.65,1014.32"/>
    </edge>
    <edge id=":10312584366_7" function="internal">
        <lane id=":10312584366_7_0" index="0" disallow="tram rail_urban rail rail_electric rail_fast ship" speed="3.65" length="2.34" shape="1435.64,1021.55 1436.05,1020.76 1437.26,1019.97"/>
    </edge>
    <edge id=":10312584366_3" function="internal">
        <lane id=":10312584366_3_0" index="0" disallow="tram rail_urban rail rail_electric rail_fast ship" speed="6.48" length="9.03" shape="1426.06,1019.89 1428.52,1019.56 1430.27,1018.52 1431.32,1016.77 1431.65,1014.32"/>
    </edge>
    <edge id=":10312584366_4" function="internal">
        <lane id=":10312584366_4_0" index="0" disallow="tram rail_urban rail rail_electric rail_fast ship" speed="13.89" length="11.20" shape="1426.06,1019.89 1437.26,1019.97"/>
    </edge>
    <edge id=":10312584366_5" function="internal">
        <lane id=":10312584366_5_0" index="0" disallow="tram rail_urban rail rail_electric rail_fast ship" speed="3.65" length="2.34" shape="1426.06,1019.89 1427.25,1020.70 1427.65,1021.51"/>
    </edge>
    <edge id=":10312584366_8" function="internal">
        <lane id=":10312584366_8_0" index="0" disallow="tram rail_urban rail rail_electric rail_fast ship" speed="3.65" length="2.34" shape="1427.65,1021.51 1427.24,1022.30 1426.03,1023.09"/>
    </edge>
    <edge id=":10312584375_0" function="internal">
        <lane id=":10312584375_0_0" index="0" disallow="tram rail_urban rail rail_electric rail_fast ship" speed="6.11" length="7.69" shape="1441.76,1016.78 1441.59,1019.52 1441.04,1021.49 1440.11,1022.69 1438.81,1023.12"/>
    </edge>
    <edge id=":10312584375_1" function="internal">
        <lane id=":10312584375_1_0" index="0" disallow="tram rail_urban rail rail_electric rail_fast ship" speed="3.65" length="1.10" shape="1438.71,1019.92 1439.65,1020.51"/>
    </edge>
    <edge id=":10312584375_2" function="internal">
        <lane id=":10312584375_2_0" index="0" disallow="tram rail_urban rail rail_electric rail_fast ship" speed="3.65" length="3.57" shape="1439.65,1020.51 1439.94,1020.69 1440.36,1021.48 1439.98,1022.29 1438.81,1023.12"/>
    </edge>
    <edge id=":10312584381_0" function="internal">
        <lane id=":10312584381_0_0" index="0" disallow="tram rail_urban rail rail_electric rail_fast ship" speed="13.18" length="9.81" shape="1433.24,636.40 1433.00,633.59 1432.25,631.78 1430.99,630.10 1429.29,627.72"/>
    </edge>
    <edge id=":10312584381_1" function="internal">
        <lane id=":10312584381_1_0" index="0" disallow="tram rail_urban rail rail_electric rail_fast ship" speed="13.89" length="9.76" shape="1433.24,636.40 1433.04,626.64"/>
    </edge>
    <edge id=":10312584385_0" function="internal">
        <lane id=":10312584385_0_0" index="0" disallow="tram rail_urban rail rail_electric rail_fast ship" speed="9.60" length="7.96" shape="1419.00,614.70 1417.38,612.95 1416.20,611.66 1414.82,610.86 1412.60,610.58"/>
    </edge>
    <edge id=":10312584385_1" function="internal">
        <lane id=":10312584385_1_0" index="0" disallow="tram rail_urban rail rail_electric rail_fast ship" speed="5.95" length="12.02" shape="1419.00,614.70 1416.23,611.50 1415.54,609.24 1416.94,607.93 1420.43,607.55"/>
    </edge>
    <edge id=":10312584385_2" function="internal">
        <lane id=":10312584385_2_0" index="0" disallow="tram rail_urban rail rail_electric rail_fast ship" speed="13.89" length="7.76" shape="1420.36,610.75 1412.60,610.58"/>
    </edge>
    <edge id=":10312584385_3" function="internal">
        <lane id=":10312584385_3_0" index="0" disallow="tram rail_urban rail rail_electric rail_fast ship" speed="3.65" length="2.34" shape="1420.36,610.75 1419.18,609.92 1418.79,609.12"/>
    </edge>
    <edge id=":10312584385_6" function="internal">
        <lane id=":10312584385_6_0" index="0" disallow="tram rail_urban rail rail_electric rail_fast ship" speed="3.65" length="2.34" shape="1418.79,609.12 1419.21,608.32 1420.43,607.55"/>
    </edge>
    <edge id=":10312584385_4" function="internal">
        <lane id=":10312584385_4_0" index="0" disallow="tram rail_urban rail rail_electric rail_fast ship" speed="13.89" length="7.81" shape="1412.62,607.38 1420.43,607.55"/>
    </edge>
    <edge id=":10312584385_5" function="internal">
        <lane id=":10312584385_5_0" index="0" disallow="tram rail_urban rail rail_electric rail_fast ship" speed="3.65" length="2.34" shape="1412.62,607.38 1413.81,608.19 1414.21,608.99"/>
    </edge>
    <edge id=":10312584385_7" function="internal">
        <lane id=":10312584385_7_0" index="0" disallow="tram rail_urban rail rail_electric rail_fast ship" speed="3.65" length="2.34" shape="1414.21,608.99 1413.81,609.79 1412.60,610.58"/>
    </edge>
    <edge id=":10312584387_0" function="internal">
        <lane id=":10312584387_0_0" index="0" disallow="tram rail_urban rail rail_electric rail_fast ship" speed="11.06" length="8.25" shape="1466.26,610.87 1463.93,611.11 1462.44,611.83 1461.10,613.01 1459.21,614.60"/>
    </edge>
    <edge id=":10312584387_1" function="internal">
        <lane id=":10312584387_1_0" index="0" disallow="tram rail_urban rail rail_electric rail_fast ship" speed="13.89" length="8.29" shape="1466.26,610.87 1457.97,610.81"/>
    </edge>
    <edge id=":10312584387_2" function="internal">
        <lane id=":10312584387_2_0" index="0" disallow="tram rail_urban rail rail_electric rail_fast ship" speed="3.65" length="2.34" shape="1466.26,610.87 1465.07,610.06 1464.67,609.26"/>
    </edge>
    <edge id=":10312584387_6" function="internal">
        <lane id=":10312584387_6_0" index="0" disallow="tram rail_urban rail rail_electric rail_fast ship" speed="3.65" length="2.34" shape="1464.67,609.26 1465.07,608.46 1466.28,607.67"/>
    </edge>
    <edge id=":10312584387_3" function="internal">
        <lane id=":10312584387_3_0" index="0" disallow="tram rail_urban rail rail_electric rail_fast ship" speed="13.89" length="8.29" shape="1457.99,607.61 1466.28,607.67"/>
    </edge>
    <edge id=":10312584387_4" function="internal">
        <lane id=":10312584387_4_0" index="0" disallow="tram rail_urban rail rail_electric rail_fast ship" speed="6.03" length="5.84" shape="1457.99,607.61 1462.00,608.08 1463.37,609.25"/>
    </edge>
    <edge id=":10312584387_5" function="internal">
        <lane id=":10312584387_5_0" index="0" disallow="tram rail_urban rail rail_electric rail_fast ship" speed="3.65" length="2.34" shape="1457.99,607.61 1459.19,608.42 1459.58,609.22"/>
    </edge>
    <edge id=":10312584387_7" function="internal">
        <lane id=":10312584387_7_0" index="0" disallow="tram rail_urban rail rail_electric rail_fast ship" speed="6.03" length="7.14" shape="1463.37,609.25 1463.54,609.40 1462.61,611.57 1459.21,614.60"/>
    </edge>
    <edge id=":10312584387_8" function="internal">
        <lane id=":10312584387_8_0" index="0" disallow="tram rail_urban rail rail_electric rail_fast ship" speed="3.65" length="2.34" shape="1459.58,609.22 1459.17,610.02 1457.97,610.81"/>
    </edge>
    <edge id=":10312584391_0" function="internal">
        <lane id=":10312584391_0_0" index="0" disallow="tram rail_urban rail rail_electric rail_fast ship" speed="12.32" length="8.70" shape="1446.56,628.81 1444.97,630.87 1443.78,632.31 1443.04,633.89 1442.76,636.36"/>
    </edge>
    <edge id=":10312584391_1" function="internal">
        <lane id=":10312584391_1_0" index="0" disallow="tram rail_urban rail rail_electric rail_fast ship" speed="13.89" length="8.71" shape="1442.79,627.65 1442.76,636.36"/>
    </edge>
    <edge id=":10312584399_0" function="internal">