<?xml version="1.0" encoding="UTF-8"?>

<!-- generated on 2023-11-28 22:03:08 by Eclipse SUMO netconvert Version 1.11.0
<configuration xmlns:xsi="http://www.w3.org/2001/XMLSchema-instance" xsi:noNamespaceSchemaLocation="http://sumo.dlr.de/xsd/netconvertConfiguration.xsd">

    <input>
        <osm-files value="map.osm"/>
    </input>

    <output>
        <output-file value="thuyloi.net.xml"/>
    </output>

    <projection>
        <proj.utm value="true"/>
    </projection>

    <processing>
        <geometry.remove value="true"/>
        <roundabouts.guess value="true"/>
    </processing>

    <tls_building>
        <tls.discard-simple value="true"/>
        <tls.join value="true"/>
        <tls.guess-signals value="true"/>
    </tls_building>

    <ramp_guessing>
        <ramps.guess value="true"/>
    </ramp_guessing>

    <junctions>
        <junctions.join value="true"/>
    </junctions>

    <report>
        <aggregate-warnings value="5"/>
    </report>

</configuration>
-->

<net version="1.9" junctionCornerDetail="5" limitTurnSpeed="5.50" xmlns:xsi="http://www.w3.org/2001/XMLSchema-instance" xsi:noNamespaceSchemaLocation="http://sumo.dlr.de/xsd/net_file.xsd">

    <location netOffset="-584931.29,-2322674.95" convBoundary="0.00,0.00,1539.23,1214.24" origBoundary="105.817251,21.002779,105.832034,21.013765" projParameter="+proj=utm +zone=48 +ellps=WGS84 +datum=WGS84 +units=m +no_defs"/>

    <type id="highway.bridleway" priority="1" numLanes="1" speed="2.78" allow="pedestrian" oneway="1" width="2.00"/>
    <type id="highway.bus_guideway" priority="1" numLanes="1" speed="27.78" allow="bus" oneway="1"/>
    <type id="highway.cycleway" priority="1" numLanes="1" speed="8.33" allow="bicycle" oneway="0" width="1.00"/>
    <type id="highway.footway" priority="1" numLanes="1" speed="2.78" allow="pedestrian" oneway="1" width="2.00"/>
    <type id="highway.ford" priority="1" numLanes="1" speed="2.78" allow="army" oneway="0"/>
    <type id="highway.living_street" priority="2" numLanes="1" speed="2.78" disallow="tram rail_urban rail rail_electric rail_fast ship" oneway="0"/>
    <type id="highway.motorway" priority="14" numLanes="2" speed="39.44" allow="private emergency authority army vip passenger hov taxi bus coach delivery truck trailer motorcycle evehicle custom1 custom2" oneway="1"/>
    <type id="highway.motorway_link" priority="9" numLanes="1" speed="22.22" allow="private emergency authority army vip passenger hov taxi bus coach delivery truck trailer motorcycle evehicle custom1 custom2" oneway="1"/>
    <type id="highway.path" priority="1" numLanes="1" speed="2.78" allow="pedestrian bicycle" oneway="0" width="2.00"/>
    <type id="highway.pedestrian" priority="1" numLanes="1" speed="2.78" allow="pedestrian" oneway="1" width="2.00"/>
    <type id="highway.primary" priority="12" numLanes="2" speed="27.78" disallow="tram rail_urban rail rail_electric rail_fast ship" oneway="0"/>
    <type id="highway.primary_link" priority="7" numLanes="1" speed="22.22" disallow="tram rail_urban rail rail_electric rail_fast ship" oneway="0"/>
    <type id="highway.raceway" priority="15" numLanes="2" speed="83.33" allow="vip" oneway="0"/>
    <type id="highway.residential" priority="3" numLanes="1" speed="13.89" disallow="tram rail_urban rail rail_electric rail_fast ship" oneway="0"/>
    <type id="highway.secondary" priority="11" numLanes="1" speed="27.78" disallow="tram rail_urban rail rail_electric rail_fast ship" oneway="0"/>
    <type id="highway.secondary_link" priority="6" numLanes="1" speed="22.22" disallow="tram rail_urban rail rail_electric rail_fast ship" oneway="0"/>
    <type id="highway.service" priority="1" numLanes="1" speed="5.56" allow="pedestrian delivery bicycle" oneway="0"/>
    <type id="highway.stairs" priority="1" numLanes="1" speed="1.39" allow="pedestrian" oneway="1" width="2.00"/>
    <type id="highway.step" priority="1" numLanes="1" speed="1.39" allow="pedestrian" oneway="1" width="2.00"/>
    <type id="highway.steps" priority="1" numLanes="1" speed="1.39" allow="pedestrian" oneway="1" width="2.00"/>
    <type id="highway.tertiary" priority="10" numLanes="1" speed="22.22" disallow="tram rail_urban rail rail_electric rail_fast ship" oneway="0"/>
    <type id="highway.tertiary_link" priority="5" numLanes="1" speed="22.22" disallow="tram rail_urban rail rail_electric rail_fast ship" oneway="0"/>
    <type id="highway.track" priority="1" numLanes="1" speed="5.56" allow="pedestrian motorcycle moped bicycle" oneway="0"/>
    <type id="highway.trunk" priority="13" numLanes="2" speed="27.78" disallow="pedestrian bicycle tram rail_urban rail rail_electric rail_fast ship" oneway="0"/>
    <type id="highway.trunk_link" priority="8" numLanes="1" speed="22.22" disallow="pedestrian bicycle tram rail_urban rail rail_electric rail_fast ship" oneway="0"/>
    <type id="highway.unclassified" priority="4" numLanes="1" speed="13.89" disallow="tram rail_urban rail rail_electric rail_fast ship" oneway="0"/>
    <type id="highway.unsurfaced" priority="1" numLanes="1" speed="8.33" disallow="tram rail_urban rail rail_electric rail_fast ship" oneway="0"/>
    <type id="railway.highspeed" priority="21" numLanes="1" speed="69.44" allow="rail_fast" oneway="1"/>
    <type id="railway.light_rail" priority="19" numLanes="1" speed="27.78" allow="rail_urban" oneway="1"/>
    <type id="railway.preserved" priority="16" numLanes="1" speed="27.78" allow="rail" oneway="1"/>
    <type id="railway.rail" priority="20" numLanes="1" speed="44.44" allow="rail" oneway="1"/>
    <type id="railway.subway" priority="18" numLanes="1" speed="27.78" allow="rail_urban" oneway="1"/>
    <type id="railway.tram" priority="17" numLanes="1" speed="13.89" allow="tram" oneway="1"/>

    <edge id=":10033252732_0" function="internal">
        <lane id=":10033252732_0_0" index="0" allow="pedestrian delivery bicycle" speed="3.65" length="4.67" shape="497.61,448.28 498.33,449.53 498.34,450.42 497.62,450.96 496.19,451.14"/>
    </edge>
    <edge id=":10060474792_0" function="internal">
        <lane id=":10060474792_0_0" index="0" allow="pedestrian delivery bicycle" speed="5.18" length="5.17" shape="1009.75,519.75 1008.94,518.67 1007.94,518.10 1006.74,518.04 1005.35,518.49"/>
    </edge>
    <edge id=":10060474792_1" function="internal">
        <lane id=":10060474792_1_0" index="0" allow="pedestrian delivery bicycle" speed="5.56" length="9.40" shape="1009.75,519.75 1005.35,511.44"/>
    </edge>
    <edge id=":10060474792_2" function="internal">
        <lane id=":10060474792_2_0" index="0" allow="pedestrian delivery bicycle" speed="3.65" length="4.67" shape="1009.75,519.75 1009.89,518.32 1010.41,517.59 1011.31,517.57 1012.58,518.26"/>
    </edge>
    <edge id=":10060474792_3" function="internal">
        <lane id=":10060474792_3_0" index="0" allow="pedestrian delivery bicycle" speed="5.56" length="9.40" shape="1008.18,509.94 1012.58,518.26"/>
    </edge>
    <edge id=":10060474792_4" function="internal">
        <lane id=":10060474792_4_0" index="0" allow="pedestrian delivery bicycle" speed="5.56" length="10.37" shape="1008.18,509.94 1009.14,512.63 1008.99,514.96 1007.73,516.91 1005.35,518.49"/>
    </edge>
    <edge id=":10060474792_5" function="internal">
        <lane id=":10060474792_5_0" index="0" allow="pedestrian delivery bicycle" speed="3.65" length="4.67" shape="1008.18,509.94 1008.03,511.38 1007.51,512.11 1006.62,512.13 1005.35,511.44"/>
    </edge>
    <edge id=":10060474792_6" function="internal">
        <lane id=":10060474792_6_0" index="0" allow="pedestrian delivery bicycle" speed="5.00" length="5.05" shape="1003.97,515.60 1005.13,514.83 1005.75,513.88 1005.82,512.75 1005.35,511.44"/>
    </edge>
    <edge id=":10060474792_7" function="internal">
        <lane id=":10060474792_7_0" index="0" allow="pedestrian delivery bicycle" speed="5.56" length="10.17" shape="1003.97,515.60 1006.67,514.74 1009.00,514.90 1010.97,516.07 1012.58,518.26"/>
    </edge>
    <edge id=":10060474792_8" function="internal">
        <lane id=":10060474792_8_0" index="0" allow="pedestrian delivery bicycle" speed="3.65" length="4.67" shape="1003.97,515.60 1005.40,515.81 1006.11,516.36 1006.09,517.25 1005.35,518.49"/>
    </edge>
    <edge id=":10060474794_0" function="internal">
        <lane id=":10060474794_0_0" index="0" allow="pedestrian delivery bicycle" speed="4.95" length="4.66" shape="973.84,500.83 973.12,499.62 972.28,498.88 971.31,498.63 970.20,498.87"/>
    </edge>
    <edge id=":10060474794_1" function="internal">
        <lane id=":10060474794_1_0" index="0" allow="pedestrian delivery bicycle" speed="5.56" length="10.24" shape="973.84,500.83 973.07,498.13 973.36,495.84 974.71,493.97 977.11,492.51"/>
    </edge>
    <edge id=":10060474794_2" function="internal">
        <lane id=":10060474794_2_0" index="0" allow="pedestrian delivery bicycle" speed="3.65" length="4.67" shape="973.84,500.83 974.08,499.41 974.65,498.72 975.54,498.76 976.76,499.53"/>
    </edge>
    <edge id=":10060474794_3" function="internal">
        <lane id=":10060474794_3_0" index="0" allow="pedestrian delivery bicycle" speed="5.02" length="5.02" shape="978.37,495.45 977.19,496.17 976.53,497.09 976.39,498.21 976.76,499.53"/>
    </edge>
    <edge id=":10060474794_4" function="internal">
        <lane id=":10060474794_4_0" index="0" allow="pedestrian delivery bicycle" speed="5.56" length="8.85" shape="978.37,495.45 970.20,498.87"/>
    </edge>
    <edge id=":10060474794_5" function="internal">
        <lane id=":10060474794_5_0" index="0" allow="pedestrian delivery bicycle" speed="3.65" length="4.67" shape="978.37,495.45 976.95,495.19 976.27,494.61 976.32,493.72 977.11,492.51"/>
    </edge>
    <edge id=":10060474794_6" function="internal">
        <lane id=":10060474794_6_0" index="0" allow="pedestrian delivery bicycle" speed="5.56" length="7.75" shape="969.95,495.18 971.10,495.21 973.33,494.34 975.66,493.22 977.11,492.51"/>
    </edge>
    <edge id=":10060474794_7" function="internal">
        <lane id=":10060474794_7_0" index="0" allow="pedestrian delivery bicycle" speed="5.56" length="8.47" shape="969.95,495.18 971.46,496.91 973.34,497.36 975.23,497.82 976.76,499.53"/>
    </edge>
    <edge id=":10060474794_8" function="internal">
        <lane id=":10060474794_8_0" index="0" allow="pedestrian delivery bicycle" speed="5.17" length="5.39" shape="969.95,495.18 971.39,496.01 971.92,496.90 971.52,497.85 970.20,498.87"/>
    </edge>
    <edge id=":10060474796_0" function="internal">
        <lane id=":10060474796_0_0" index="0" allow="pedestrian delivery bicycle" speed="3.65" length="4.67" shape="961.10,482.88 961.36,481.46 961.93,480.77 962.82,480.82 964.04,481.60"/>
    </edge>
    <edge id=":10060474797_0" function="internal">
        <lane id=":10060474797_0_0" index="0" allow="pedestrian delivery bicycle" speed="5.10" length="5.05" shape="923.03,483.76 922.22,482.61 921.25,481.99 920.12,481.88 918.82,482.29"/>
    </edge>
    <edge id=":10060474797_1" function="internal">
        <lane id=":10060474797_1_0" index="0" allow="pedestrian delivery bicycle" speed="5.56" length="10.20" shape="923.03,483.76 922.11,481.11 922.26,478.82 923.48,476.87 925.77,475.26"/>
    </edge>
    <edge id=":10060474797_2" function="internal">
        <lane id=":10060474797_2_0" index="0" allow="pedestrian delivery bicycle" speed="3.65" length="4.67" shape="923.03,483.76 923.19,482.32 923.72,481.60 924.61,481.59 925.87,482.29"/>
    </edge>
    <edge id=":10060474797_3" function="internal">
        <lane id=":10060474797_3_0" index="0" allow="pedestrian delivery bicycle" speed="5.03" length="5.01" shape="927.22,478.12 926.09,478.90 925.49,479.86 925.42,480.99 925.87,482.29"/>
    </edge>
    <edge id=":10060474797_4" function="internal">
        <lane id=":10060474797_4_0" index="0" allow="pedestrian delivery bicycle" speed="5.56" length="9.38" shape="927.22,478.12 918.82,482.29"/>
    </edge>
    <edge id=":10060474797_5" function="internal">
        <lane id=":10060474797_5_0" index="0" allow="pedestrian delivery bicycle" speed="3.65" length="4.67" shape="927.22,478.12 925.79,477.94 925.07,477.41 925.06,476.52 925.77,475.26"/>
    </edge>
    <edge id=":10060474797_6" function="internal">
        <lane id=":10060474797_6_0" index="0" allow="pedestrian delivery bicycle" speed="5.56" length="9.33" shape="917.42,479.42 925.77,475.26"/>
    </edge>
    <edge id=":10060474797_7" function="internal">
        <lane id=":10060474797_7_0" index="0" allow="pedestrian delivery bicycle" speed="5.56" length="10.13" shape="917.42,479.42 920.03,478.58 922.32,478.78 924.26,480.01 925.87,482.29"/>
    </edge>
    <edge id=":10060474797_8" function="internal">
        <lane id=":10060474797_8_0" index="0" allow="pedestrian delivery bicycle" speed="3.65" length="4.67" shape="917.42,479.42 918.85,479.61 919.56,480.15 919.55,481.05 918.82,482.29"/>
    </edge>
    <edge id=":10060474798_0" function="internal">
        <lane id=":10060474798_0_0" index="0" allow="pedestrian delivery bicycle" speed="3.65" length="4.67" shape="932.89,495.89 932.73,497.32 932.20,498.05 931.31,498.06 930.05,497.36"/>
    </edge>
    <edge id=":10060600238_0" function="internal">
        <lane id=":10060600238_0_0" index="0" allow="pedestrian delivery bicycle" speed="5.03" length="5.01" shape="841.32,523.65 840.54,522.52 839.59,521.90 838.46,521.82 837.16,522.26"/>
    </edge>
    <edge id=":10060600238_1" function="internal">
        <lane id=":10060600238_1_0" index="0" allow="pedestrian delivery bicycle" speed="5.56" length="10.19" shape="841.32,523.65 840.45,520.99 840.64,518.70 841.89,516.76 844.19,515.20"/>
    </edge>
    <edge id=":10060600238_2" function="internal">
        <lane id=":10060600238_2_0" index="0" allow="pedestrian delivery bicycle" speed="3.65" length="4.67" shape="841.32,523.65 841.50,522.22 842.05,521.51 842.94,521.51 844.19,522.24"/>
    </edge>
    <edge id=":10060600238_3" function="internal">
        <lane id=":10060600238_3_0" index="0" allow="pedestrian delivery bicycle" speed="5.04" length="5.02" shape="845.60,518.07 844.46,518.84 843.85,519.79 843.76,520.93 844.19,522.24"/>
    </edge>
    <edge id=":10060600238_4" function="internal">
        <lane id=":10060600238_4_0" index="0" allow="pedestrian delivery bicycle" speed="5.56" length="9.42" shape="845.60,518.07 837.16,522.26"/>
    </edge>
    <edge id=":10060600238_5" function="internal">
        <lane id=":10060600238_5_0" index="0" allow="pedestrian delivery bicycle" speed="3.65" length="4.67" shape="845.60,518.07 844.17,517.88 843.46,517.34 843.47,516.44 844.19,515.20"/>
    </edge>
    <edge id=":10060600238_6" function="internal">
        <lane id=":10060600238_6_0" index="0" allow="pedestrian delivery bicycle" speed="5.56" length="9.46" shape="835.72,519.40 844.19,515.20"/>
    </edge>
    <edge id=":10060600238_7" function="internal">
        <lane id=":10060600238_7_0" index="0" allow="pedestrian delivery bicycle" speed="5.56" length="10.20" shape="835.72,519.40 838.37,518.51 840.67,518.68 842.61,519.93 844.19,522.24"/>
    </edge>
    <edge id=":10060600238_8" function="internal">
        <lane id=":10060600238_8_0" index="0" allow="pedestrian delivery bicycle" speed="3.65" length="4.67" shape="835.72,519.40 837.15,519.57 837.87,520.11 837.87,521.00 837.16,522.26"/>
    </edge>
    <edge id=":10060600239_0" function="internal">
        <lane id=":10060600239_0_0" index="0" allow="pedestrian delivery bicycle" speed="5.03" length="5.01" shape="880.40,603.76 879.63,602.62 878.69,602.00 877.56,601.91 876.25,602.33"/>
    </edge>
    <edge id=":10060600239_1" function="internal">
        <lane id=":10060600239_1_0" index="0" allow="pedestrian delivery bicycle" speed="5.56" length="9.40" shape="880.40,603.76 876.31,595.30"/>
    </edge>
    <edge id=":10060600239_2" function="internal">
        <lane id=":10060600239_2_0" index="0" allow="pedestrian delivery bicycle" speed="3.65" length="4.67" shape="880.40,603.76 880.60,602.33 881.14,601.62 882.04,601.64 883.28,602.37"/>
    </edge>
    <edge id=":10060600239_3" function="internal">
        <lane id=":10060600239_3_0" index="0" allow="pedestrian delivery bicycle" speed="5.56" length="9.40" shape="879.19,593.91 883.28,602.37"/>
    </edge>
    <edge id=":10060600239_4" function="internal">
        <lane id=":10060600239_4_0" index="0" allow="pedestrian delivery bicycle" speed="5.56" length="10.16" shape="879.19,593.91 880.03,596.55 879.82,598.84 878.56,600.76 876.25,602.33"/>
    </edge>
    <edge id=":10060600239_5" function="internal">
        <lane id=":10060600239_5_0" index="0" allow="pedestrian delivery bicycle" speed="3.65" length="4.67" shape="879.19,593.91 878.99,595.33 878.45,596.04 877.55,596.03 876.31,595.30"/>
    </edge>
    <edge id=":10060600239_6" function="internal">
        <lane id=":10060600239_6_0" index="0" allow="pedestrian delivery bicycle" speed="5.06" length="5.02" shape="874.85,599.46 875.99,598.68 876.62,597.73 876.72,596.60 876.31,595.30"/>
    </edge>
    <edge id=":10060600239_7" function="internal">
        <lane id=":10060600239_7_0" index="0" allow="pedestrian delivery bicycle" speed="5.56" length="10.19" shape="874.85,599.46 877.50,598.59 879.79,598.79 881.72,600.05 883.28,602.37"/>
    </edge>
    <edge id=":10060600239_8" function="internal">
        <lane id=":10060600239_8_0" index="0" allow="pedestrian delivery bicycle" speed="3.65" length="4.67" shape="874.85,599.46 876.28,599.65 876.99,600.19 876.98,601.08 876.25,602.33"/>
    </edge>
    <edge id=":10060600242_0" function="internal">
        <lane id=":10060600242_0_0" index="0" allow="pedestrian delivery bicycle" speed="5.17" length="5.16" shape="850.56,542.43 849.78,541.32 848.80,540.71 847.61,540.62 846.21,541.03"/>
    </edge>
    <edge id=":10060600242_1" function="internal">
        <lane id=":10060600242_1_0" index="0" allow="pedestrian delivery bicycle" speed="5.56" length="9.41" shape="850.56,542.43 846.41,533.99"/>
    </edge>
    <edge id=":10060600242_2" function="internal">
        <lane id=":10060600242_2_0" index="0" allow="pedestrian delivery bicycle" speed="3.65" length="4.67" shape="850.56,542.43 850.75,541.00 851.29,540.28 852.18,540.29 853.43,541.01"/>
    </edge>
    <edge id=":10060600242_3" function="internal">
        <lane id=":10060600242_3_0" index="0" allow="pedestrian delivery bicycle" speed="5.56" length="9.41" shape="849.28,532.57 853.43,541.01"/>
    </edge>
    <edge id=":10060600242_4" function="internal">
        <lane id=":10060600242_4_0" index="0" allow="pedestrian delivery bicycle" speed="5.56" length="10.35" shape="849.28,532.57 850.16,535.29 849.94,537.60 848.63,539.52 846.21,541.03"/>
    </edge>
    <edge id=":10060600242_5" function="internal">
        <lane id=":10060600242_5_0" index="0" allow="pedestrian delivery bicycle" speed="3.65" length="4.67" shape="849.28,532.57 849.09,534.00 848.55,534.72 847.65,534.71 846.41,533.99"/>
    </edge>
    <edge id=":10060600242_6" function="internal">
        <lane id=":10060600242_6_0" index="0" allow="pedestrian delivery bicycle" speed="5.00" length="5.05" shape="844.91,538.11 846.09,537.37 846.73,536.44 846.84,535.31 846.41,533.99"/>
    </edge>
    <edge id=":10060600242_7" function="internal">
        <lane id=":10060600242_7_0" index="0" allow="pedestrian delivery bicycle" speed="5.56" length="10.17" shape="844.91,538.11 847.63,537.32 849.95,537.54 851.88,538.77 853.43,541.01"/>
    </edge>
    <edge id=":10060600242_8" function="internal">
        <lane id=":10060600242_8_0" index="0" allow="pedestrian delivery bicycle" speed="3.65" length="4.67" shape="844.91,538.11 846.33,538.35 847.02,538.92 846.98,539.82 846.21,541.03"/>
    </edge>
    <edge id=":10060600243_0" function="internal">
        <lane id=":10060600243_0_0" index="0" allow="pedestrian delivery bicycle" speed="5.56" length="8.39" shape="814.41,557.75 810.74,550.20"/>
    </edge>
    <edge id=":10060600243_1" function="internal">
        <lane id=":10060600243_1_0" index="0" allow="pedestrian delivery bicycle" speed="5.56" length="9.57" shape="814.41,557.75 813.76,555.39 814.13,553.33 815.51,551.58 817.91,550.13"/>
    </edge>
    <edge id=":10060600243_2" function="internal">
        <lane id=":10060600243_2_0" index="0" allow="pedestrian delivery bicycle" speed="3.67" length="4.74" shape="814.41,557.75 814.88,556.36 815.56,555.76 816.45,555.94 817.55,556.91"/>
    </edge>
    <edge id=":10060600243_3" function="internal">
        <lane id=":10060600243_3_0" index="0" allow="pedestrian delivery bicycle" speed="4.94" length="4.80" shape="819.21,553.05 818.04,553.77 817.37,554.65 817.21,555.70 817.55,556.91"/>
    </edge>
    <edge id=":10060600243_4" function="internal">
        <lane id=":10060600243_4_0" index="0" allow="pedestrian delivery bicycle" speed="5.56" length="10.07" shape="819.21,553.05 816.54,553.83 814.24,553.61 812.30,552.40 810.74,550.20"/>
    </edge>
    <edge id=":10060600243_5" function="internal">
        <lane id=":10060600243_5_0" index="0" allow="pedestrian delivery bicycle" speed="3.65" length="4.67" shape="819.21,553.05 817.79,552.81 817.10,552.24 817.14,551.35 817.91,550.13"/>
    </edge>
    <edge id=":10060600243_6" function="internal">
        <lane id=":10060600243_6_0" index="0" allow="pedestrian delivery bicycle" speed="5.17" length="5.10" shape="813.60,548.75 814.38,549.85 815.36,550.44 816.54,550.54 817.91,550.13"/>
    </edge>
    <edge id=":10060600243_7" function="internal">
        <lane id=":10060600243_7_0" index="0" allow="pedestrian delivery bicycle" speed="5.56" length="9.07" shape="813.60,548.75 817.55,556.91"/>
    </edge>
    <edge id=":10060600243_8" function="internal">
        <lane id=":10060600243_8_0" index="0" allow="pedestrian delivery bicycle" speed="3.65" length="4.67" shape="813.60,548.75 813.43,550.18 812.90,550.90 812.00,550.91 810.74,550.20"/>
    </edge>
    <edge id=":10060600245_0" function="internal">
        <lane id=":10060600245_0_0" index="0" allow="pedestrian delivery bicycle" speed="3.65" length="4.67" shape="784.92,576.96 783.49,576.77 782.78,576.23 782.78,575.34 783.51,574.09"/>
    </edge>
    <edge id=":10060600246_0" function="internal">
        <lane id=":10060600246_0_0" index="0" allow="pedestrian delivery bicycle" speed="3.65" length="4.67" shape="923.36,606.65 923.18,608.08 922.64,608.79 921.74,608.79 920.49,608.07"/>
    </edge>
    <edge id=":10060600248_0" function="internal">
        <lane id=":10060600248_0_0" index="0" allow="pedestrian delivery bicycle" speed="5.01" length="5.03" shape="822.42,590.96 821.66,589.81 820.72,589.18 819.59,589.08 818.28,589.51"/>
    </edge>
    <edge id=":10060600248_1" function="internal">
        <lane id=":10060600248_1_0" index="0" allow="pedestrian delivery bicycle" speed="5.56" length="10.17" shape="822.42,590.96 821.59,588.28 821.79,585.97 823.02,584.03 825.28,582.47"/>
    </edge>
    <edge id=":10060600248_2" function="internal">
        <lane id=":10060600248_2_0" index="0" allow="pedestrian delivery bicycle" speed="3.65" length="4.67" shape="822.42,590.96 822.64,589.54 823.19,588.84 824.09,588.86 825.32,589.61"/>
    </edge>
    <edge id=":10060600248_3" function="internal">
        <lane id=":10060600248_3_0" index="0" allow="pedestrian delivery bicycle" speed="5.12" length="5.10" shape="826.70,585.33 825.59,586.11 824.98,587.08 824.89,588.25 825.32,589.61"/>
    </edge>
    <edge id=":10060600248_4" function="internal">
        <lane id=":10060600248_4_0" index="0" allow="pedestrian delivery bicycle" speed="5.56" length="9.40" shape="826.70,585.33 818.28,589.51"/>
    </edge>
    <edge id=":10060600248_5" function="internal">
        <lane id=":10060600248_5_0" index="0" allow="pedestrian delivery bicycle" speed="3.65" length="4.67" shape="826.70,585.33 825.27,585.15 824.56,584.61 824.56,583.72 825.28,582.47"/>
    </edge>
    <edge id=":10060600248_6" function="internal">
        <lane id=":10060600248_6_0" index="0" allow="pedestrian delivery bicycle" speed="5.56" length="9.40" shape="816.85,586.65 825.28,582.47"/>
    </edge>
    <edge id=":10060600248_7" function="internal">
        <lane id=":10060600248_7_0" index="0" allow="pedestrian delivery bicycle" speed="5.56" length="10.28" shape="816.85,586.65 819.54,585.76 821.85,585.96 823.77,587.24 825.32,589.61"/>
    </edge>
    <edge id=":10060600248_8" function="internal">
        <lane id=":10060600248_8_0" index="0" allow="pedestrian delivery bicycle" speed="3.65" length="4.67" shape="816.85,586.65 818.29,586.83 819.00,587.37 819.00,588.26 818.28,589.51"/>
    </edge>
    <edge id=":10060600249_0" function="internal">
        <lane id=":10060600249_0_0" index="0" allow="pedestrian delivery bicycle" speed="3.65" length="4.67" shape="838.80,618.52 838.58,619.95 838.03,620.65 837.13,620.62 835.90,619.87"/>
    </edge>
    <edge id=":10074809267_0" function="internal">
        <lane id=":10074809267_0_0" index="0" allow="pedestrian delivery bicycle" speed="3.65" length="4.67" shape="352.79,898.37 352.50,896.96 352.78,896.11 353.63,895.82 355.04,896.10"/>
    </edge>
    <edge id=":10116028532_0" function="internal">
        <lane id=":10116028532_0_0" index="0" disallow="tram rail_urban rail rail_electric rail_fast ship" speed="22.22" length="5.78" shape="755.19,668.83 756.50,669.76 757.42,670.36 758.41,670.85 759.88,671.46"/>
        <lane id=":10116028532_0_1" index="1" disallow="tram rail_urban rail rail_electric rail_fast ship" speed="22.22" length="5.78" shape="753.34,671.45 754.84,672.50 755.89,673.18 757.01,673.73 758.70,674.43"/>
    </edge>
    <edge id=":10156272122_0" function="internal">
        <lane id=":10156272122_0_0" index="0" allow="pedestrian delivery bicycle" speed="5.56" length="9.04" shape="834.73,862.74 826.46,866.37"/>
    </edge>
    <edge id=":10156272122_1" function="internal">
        <lane id=":10156272122_1_0" index="0" allow="pedestrian delivery bicycle" speed="3.65" length="2.34" shape="834.73,862.74 833.31,862.49 832.63,861.92"/>
    </edge>
    <edge id=":10156272122_4" function="internal">
        <lane id=":10156272122_4_0" index="0" allow="pedestrian delivery bicycle" speed="3.65" length="2.34" shape="832.63,861.92 832.67,861.02 833.45,859.81"/>
    </edge>
    <edge id=":10156272122_2" function="internal">
        <lane id=":10156272122_2_0" index="0" allow="pedestrian delivery bicycle" speed="5.56" length="9.04" shape="825.17,863.44 833.45,859.81"/>
    </edge>
    <edge id=":10156272122_3" function="internal">
        <lane id=":10156272122_3_0" index="0" allow="pedestrian delivery bicycle" speed="3.65" length="2.34" shape="825.17,863.44 826.59,863.69 827.28,864.26"/>
    </edge>
    <edge id=":10156272122_5" function="internal">
        <lane id=":10156272122_5_0" index="0" allow="pedestrian delivery bicycle" speed="3.65" length="2.34" shape="827.28,864.26 827.24,865.16 826.46,866.37"/>
    </edge>
    <edge id=":10170867109_0" function="internal">
        <lane id=":10170867109_0_0" index="0" allow="pedestrian delivery bicycle" speed="5.56" length="5.13" shape="468.08,957.24 464.25,953.82"/>
    </edge>
    <edge id=":10170867109_1" function="internal">
        <lane id=":10170867109_1_0" index="0" allow="pedestrian delivery bicycle" speed="3.65" length="2.34" shape="468.08,957.24 467.72,955.84 467.95,954.98"/>
    </edge>
    <edge id=":10170867109_4" function="internal">
        <lane id=":10170867109_4_0" index="0" allow="pedestrian delivery bicycle" speed="3.65" length="2.34" shape="467.95,954.98 468.78,954.65 470.21,954.85"/>
    </edge>
    <edge id=":10170867109_2" function="internal">
        <lane id=":10170867109_2_0" index="0" allow="pedestrian delivery bicycle" speed="5.56" length="5.13" shape="466.38,951.43 470.21,954.85"/>
    </edge>
    <edge id=":10170867109_3" function="internal">
        <lane id=":10170867109_3_0" index="0" allow="pedestrian delivery bicycle" speed="3.65" length="2.34" shape="466.38,951.43 466.75,952.83 466.51,953.69"/>
    </edge>
    <edge id=":10170867109_5" function="internal">
        <lane id=":10170867109_5_0" index="0" allow="pedestrian delivery bicycle" speed="3.65" length="2.34" shape="466.51,953.69 465.68,954.03 464.25,953.82"/>
    </edge>
    <edge id=":10170867110_0" function="internal">
        <lane id=":10170867110_0_0" index="0" allow="pedestrian delivery bicycle" speed="5.56" length="5.72" shape="478.45,945.34 474.54,941.16"/>
    </edge>
    <edge id=":10170867110_1" function="internal">
        <lane id=":10170867110_1_0" index="0" allow="pedestrian delivery bicycle" speed="3.65" length="2.34" shape="478.45,945.34 478.22,943.92 478.53,943.08"/>
    </edge>
    <edge id=":10170867110_4" function="internal">
        <lane id=":10170867110_4_0" index="0" allow="pedestrian delivery bicycle" speed="3.65" length="2.34" shape="478.53,943.08 479.39,942.82 480.79,943.15"/>
    </edge>
    <edge id=":10170867110_2" function="internal">
        <lane id=":10170867110_2_0" index="0" allow="pedestrian delivery bicycle" speed="5.56" length="5.72" shape="476.88,938.97 480.79,943.15"/>
    </edge>
    <edge id=":10170867110_3" function="internal">
        <lane id=":10170867110_3_0" index="0" allow="pedestrian delivery bicycle" speed="3.65" length="2.34" shape="476.88,938.97 477.12,940.40 476.80,941.24"/>
    </edge>
    <edge id=":10170867110_5" function="internal">
        <lane id=":10170867110_5_0" index="0" allow="pedestrian delivery bicycle" speed="3.65" length="2.34" shape="476.80,941.24 475.95,941.49 474.54,941.16"/>
    </edge>
    <edge id=":10170867111_0" function="internal">
        <lane id=":10170867111_0_0" index="0" allow="pedestrian delivery bicycle" speed="5.56" length="5.75" shape="522.54,893.88 518.63,889.67"/>
    </edge>
    <edge id=":10170867111_1" function="internal">
        <lane id=":10170867111_1_0" index="0" allow="pedestrian delivery bicycle" speed="3.65" length="2.34" shape="522.54,893.88 522.31,892.45 522.63,891.62"/>
    </edge>
    <edge id=":10170867111_4" function="internal">